Circuit: * D:\Engineering\2022\Semester 2\E Design 344\Project\Assignment 4\LTSpice4b\E344_23575786_A4b.asc

Limiting rise time of source v3 to 0.003
Limiting fall time of source v3 to 0.003
WARNING: Less than two connections to node 5V.  This node is used by RSENSE5V.
Direct Newton iteration for .op point succeeded.

Date: Fri Aug 26 16:54:33 2022
Total elapsed time: 0.688 seconds.

tnom = 27
temp = 27
method = modified trap
totiter = 30328
traniter = 30305
tranpoints = 13908
accept = 9961
rejected = 3947
matrix size = 23
fillins = 2
solver = Normal
Matrix Compiler1: 1.25 KB object code size  0.4/0.3/[0.3]
Matrix Compiler2: off  [0.2]/0.3/0.3

