Circuit: * D:\Engineering\2022\Semester 2\E Design 344\Project\Assignment 4\LTSpice4a\E344_23575786_A4a.asc

V3: Removing PWL point (0.06,0.5)
WARNING: Less than two connections to node 5V.  This node is used by RSENSE5V.
Direct Newton iteration failed to find .op point.  (Use ".option noopiter" to skip.)
Starting Gmin stepping
Gmin = 10
Gmin = 1.07374
Gmin = 0.115292
Gmin = 0.0123794
Gmin = 0.00132923
vernier = 0.5
vernier = 0.25
vernier = 0.125
vernier = 0.0625
Gmin = 0.00100083
vernier = 0.03125
vernier = 0.015625
vernier = 0.0078125
vernier = 0.00390625
vernier = 0.00195313
Gmin = 0.00100083
vernier = 0.000976563
vernier = 0.000488281
Gmin = 0
Gmin stepping failed

Starting source stepping with srcstepmethod=0
Source Step = 3.0303%
vernier = 0.25
Source Step = 1.70455%
Source Step = 3.59848%
Source Step = 5.49242%
Source Step = 7.38636%
Source Step = 9.2803%
vernier = 0.09375
Source Step = 11.9318%
Source Step = 14.7727%
Source Step = 17.6136%
Source Step = 20.4545%
Source Step = 23.2955%
vernier = 0.140625
Source Step = 27.1307%
Source Step = 31.392%
Source Step = 35.6534%
Source Step = 39.9148%
Source Step = 44.1761%
vernier = 0.210938
Source Step = 49.7159%
Source Step = 56.108%
Source Step = 62.5%
Source Step = 68.892%
Source Step = 75.2841%
vernier = 0.316406
Source Step = 83.2741%
Source Step = 84.2517%
Source Step = 84.2891%
Source Step = 84.3266%
Source Step = 84.364%
Source Step = 84.4015%
Source Step = 84.4389%
vernier = 0.00185394
Source Step = 84.4933%
Source Step = 84.5494%
Source Step = 84.6056%
Source Step = 84.6618%
Source Step = 84.718%
vernier = 0.00278091
Source Step = 84.7966%
Source Step = 84.8809%
Source Step = 84.9652%
Source Step = 85.0494%
Source Step = 85.1337%
vernier = 0.00417137
Source Step = 85.2475%
Source Step = 85.3739%
Source Step = 85.5003%
Source Step = 85.6267%
Source Step = 85.7531%
vernier = 0.00625706
Source Step = 85.9174%
Source Step = 86.107%
Source Step = 86.2966%
Source Step = 86.4862%
Source Step = 86.6759%
vernier = 0.00938559
Source Step = 86.9129%
Source Step = 87.1973%
Source Step = 87.4817%
Source Step = 87.7661%
Source Step = 88.0505%
vernier = 0.0140784
Source Step = 88.3918%
Source Step = 88.8184%
Source Step = 89.245%
Source Step = 89.6717%
Source Step = 90.0983%
Source Step = 90.1996%
Source Step = 90.2263%
Source Step = 90.2529%
Source Step = 90.2796%
Source Step = 90.3062%
Source Step = 90.3329%
Source Step = 90.3596%
Starting source stepping with srcstepmethod=1
Source Step = 3.0303%
Source Step = 33.3333%
Source Step = 63.6364%
Source Step = 93.9394%
Source Step = 96.9815%
Source stepping failed

Pseudo Transient succeeded in finding the operating point at 294.734 ms.
Heightened Def Con from 0.0399679 to 0.0399679
Heightened Def Con from 0.0700609 to 0.0700609

Date: Fri Aug 26 16:59:59 2022
Total elapsed time: 3.020 seconds.

tnom = 27
temp = 27
method = modified trap
totiter = 19404
traniter = 3609
tranpoints = 1476
accept = 1352
rejected = 142
matrix size = 140
fillins = 282
solver = Normal
Thread vector: 8.8/5.2[3] 1.2/1.9[1] 3.3/2.7[3] 0.6/1.4[1]  2592/500
Matrix Compiler1: 24.89 KB object code size  4.1/2.0/[1.0]
Matrix Compiler2: 16.26 KB object code size  1.8/2.5/[0.7]

