Circuit: * D:\Engineering\2022\Semester 2\E Design 344\Project\Assignment 4\LTSpice4a\E344_12345678_A4a.asc

V3: Removing PWL point (0.06,0.5)
WARNING: Less than two connections to node NC_01.  This node is used by Q1.
WARNING: Less than two connections to node N005.  This node is used by R8.
Direct Newton iteration for .op point succeeded.

Date: Mon Aug 15 16:12:33 2022
Total elapsed time: 0.252 seconds.

tnom = 27
temp = 27
method = modified trap
totiter = 2914
traniter = 2885
tranpoints = 1413
accept = 1292
rejected = 121
matrix size = 33
fillins = 14
solver = Normal
Matrix Compiler1: 2.75 KB object code size  1.4/0.9/[0.5]
Matrix Compiler2: 2.75 KB object code size  0.7/1.0/[0.7]

