Circuit: * D:\Engineering\2022\Semester 2\E Design 344\Project\Assignment 3\Spice\E344_23575786_Ass3.asc

Direct Newton iteration failed to find .op point.  (Use ".option noopiter" to skip.)
Starting Gmin stepping
Gmin = 10
Gmin = 1.07374
Gmin = 0.115292
Gmin = 0.0123794
Gmin = 0.00132923
Gmin = 0.000142725
Gmin = 1.5325e-005
Gmin = 1.6455e-006
vernier = 0.5
vernier = 0.25
Gmin = 7.37083e-007
vernier = 0.333333
vernier = 0.444444
Gmin = 3.42136e-007
vernier = 0.592592
Gmin = 1.01256e-007
vernier = 0.790123
vernier = 1
Gmin = 1.531e-008
Gmin = 1.6439e-009
Gmin = 1.76512e-010
Gmin = 1.89528e-011
Gmin = 2.03505e-012
Gmin = 2.18511e-013
Gmin = 0
Gmin stepping succeeded in finding the operating point.


Date: Fri Aug 12 16:49:28 2022
Total elapsed time: 0.154 seconds.

tnom = 27
temp = 27
method = modified trap
totiter = 4909
traniter = 4184
tranpoints = 2043
accept = 1791
rejected = 252
matrix size = 31
fillins = 47
solver = Normal
Thread vector: 7.0/4.9[2] 1.8/2.6[1] 1.5/1.5[1] 0.2/0.8[1]  2592/500
Matrix Compiler1: 4.46 KB object code size  1.0/0.4/[0.2]
Matrix Compiler2: 3.22 KB object code size  0.2/0.5/[0.2]

