Circuit: * D:\Engineering\2022\Semester 2\E Design 344\Project\Combined.asc

Limiting rise time of source v4 to 0.0003
Limiting fall time of source v4 to 0.0003
Limiting rise time of source v3 to 0.0006
Limiting fall time of source v3 to 0.0006
Limiting rise time of source v2 to 5e-005
Limiting fall time of source v2 to 5e-005
Limiting rise time of source v1 to 0.0006
Limiting fall time of source v1 to 0.0006
Direct Newton iteration failed to find .op point.  (Use ".option noopiter" to skip.)
Starting Gmin stepping
Gmin = 10
Gmin = 1.07374
Gmin = 0.115292
Gmin = 0.0123794
Gmin = 0.00132923
vernier = 0.5
vernier = 0.25
vernier = 0.125
vernier = 0.0625
Gmin = 0.00100083
vernier = 0.03125
vernier = 0.015625
vernier = 0.0078125
vernier = 0.00390625
vernier = 0.00195313
Gmin = 0.00100083
vernier = 0.000976563
vernier = 0.000488281
Gmin = 0
Gmin stepping failed

Starting source stepping with srcstepmethod=0
Source Step = 3.0303%
vernier = 0.25
Source Step = 1.70455%
Source Step = 3.59848%
Source Step = 5.49242%
Source Step = 7.38636%
Source Step = 9.2803%
vernier = 0.09375
Source Step = 11.9318%
Source Step = 14.7727%
Source Step = 17.6136%
Source Step = 20.4545%
Source Step = 23.2955%
vernier = 0.140625
Source Step = 27.1307%
Source Step = 31.392%
Source Step = 35.6534%
Source Step = 39.9148%
Source Step = 44.1761%
vernier = 0.210938
Source Step = 49.7159%
Source Step = 56.108%
Source Step = 62.5%
Source Step = 68.892%
Source Step = 75.2841%
vernier = 0.316406
Source Step = 83.2741%
Source Step = 92.8622%
Source stepping succeeded in finding the operating point.

Changing Tseed to 9.76562e-009
Changing Tseed to 9.76563e-011
Changing Tseed to 9.76562e-008
Changing Tseed to 9.76562e-012
Heightened Def Con from 2.04234e-010 to 2.35484e-010
Heightened Def Con from 1.6398e-007 to 1.64995e-007
Heightened Def Con from 2.7584e-007 to 2.75871e-007
Heightened Def Con from 2.89252e-007 to 2.89284e-007
Heightened Def Con from 3.78866e-007 to 3.78868e-007
Heightened Def Con from 4.47746e-007 to 4.47887e-007
Heightened Def Con from 4.82483e-007 to 4.83608e-007
Heightened Def Con from 5.99103e-007 to 5.99135e-007
Heightened Def Con from 7.81434e-007 to 7.81466e-007
Heightened Def Con from 8.09135e-007 to 8.09262e-007
Heightened Def Con from 8.79459e-007 to 8.7949e-007
Heightened Def Con from 9.39196e-007 to 9.39211e-007
Heightened Def Con from 1.10727e-006 to 1.10728e-006
Heightened Def Con from 1.11897e-006 to 1.119e-006
Heightened Def Con from 1.15869e-006 to 1.15873e-006
Heightened Def Con from 1.18372e-006 to 1.18375e-006
Heightened Def Con from 2.94925e-006 to 2.94927e-006
Heightened Def Con from 2.9767e-006 to 2.97684e-006
Heightened Def Con from 3.00418e-006 to 3.00421e-006
Heightened Def Con from 3.07655e-006 to 3.07658e-006
Heightened Def Con from 3.2365e-006 to 3.23651e-006
Heightened Def Con from 3.24021e-006 to 3.24023e-006
Heightened Def Con from 3.2767e-006 to 3.27671e-006
Heightened Def Con from 3.27876e-006 to 3.27879e-006
Heightened Def Con from 3.29151e-006 to 3.29153e-006
Heightened Def Con from 3.32632e-006 to 3.32636e-006
Heightened Def Con from 3.41467e-006 to 3.41468e-006
Heightened Def Con from 3.87971e-006 to 3.87974e-006
Heightened Def Con from 3.90263e-006 to 3.90277e-006
Heightened Def Con from 3.9935e-006 to 3.99364e-006
Heightened Def Con from 4.00976e-006 to 4.00977e-006
Heightened Def Con from 4.03946e-006 to 4.04048e-006
Heightened Def Con from 4.0597e-006 to 4.05973e-006
Heightened Def Con from 4.12365e-006 to 4.12367e-006
Heightened Def Con from 4.20615e-006 to 4.20628e-006
Heightened Def Con from 4.26391e-006 to 4.26394e-006
Heightened Def Con from 4.5418e-006 to 4.54183e-006
Heightened Def Con from 4.56188e-006 to 4.56191e-006
Heightened Def Con from 5.0169e-006 to 5.0169e-006
Heightened Def Con from 5.17995e-006 to 5.17995e-006
Heightened Def Con from 5.23933e-006 to 5.23947e-006
Heightened Def Con from 5.63931e-006 to 5.63932e-006
Heightened Def Con from 5.64294e-006 to 5.64296e-006
Heightened Def Con from 5.70479e-006 to 5.70479e-006
Heightened Def Con from 5.7071e-006 to 5.70812e-006
Heightened Def Con from 5.73026e-006 to 5.73028e-006
Heightened Def Con from 5.73671e-006 to 5.73674e-006
Heightened Def Con from 6.10338e-006 to 6.10341e-006
Heightened Def Con from 6.21272e-006 to 6.21273e-006
Heightened Def Con from 6.55165e-006 to 6.55168e-006
Heightened Def Con from 6.7508e-006 to 6.75083e-006
Heightened Def Con from 7.83345e-006 to 7.83346e-006
Heightened Def Con from 7.92267e-006 to 7.9227e-006
Heightened Def Con from 8.14763e-006 to 8.14766e-006
Heightened Def Con from 8.4096e-006 to 8.40963e-006
Heightened Def Con from 8.4634e-006 to 8.46354e-006
Heightened Def Con from 8.53386e-006 to 8.53411e-006
Heightened Def Con from 8.74204e-006 to 8.74204e-006
Heightened Def Con from 8.79977e-006 to 8.79977e-006
Heightened Def Con from 8.92113e-006 to 8.92127e-006
Heightened Def Con from 8.9816e-006 to 8.98185e-006
Heightened Def Con from 9.23737e-006 to 9.2374e-006
Heightened Def Con from 9.26616e-006 to 9.26619e-006
Heightened Def Con from 9.27177e-006 to 9.2718e-006
Heightened Def Con from 9.62198e-006 to 9.62299e-006
Heightened Def Con from 9.85279e-006 to 9.85304e-006
Heightened Def Con from 9.87278e-006 to 9.87282e-006
Heightened Def Con from 1.00621e-005 to 1.00622e-005
Heightened Def Con from 1.00626e-005 to 1.00627e-005
Heightened Def Con from 1.01139e-005 to 1.0114e-005
Heightened Def Con from 1.01225e-005 to 1.01225e-005
Heightened Def Con from 1.01684e-005 to 1.01685e-005
Heightened Def Con from 1.01861e-005 to 1.01862e-005
Heightened Def Con from 1.02117e-005 to 1.02117e-005
Heightened Def Con from 1.0252e-005 to 1.02532e-005
Heightened Def Con from 1.05255e-005 to 1.05255e-005
Heightened Def Con from 1.0648e-005 to 1.0648e-005
Heightened Def Con from 1.06505e-005 to 1.06506e-005
Heightened Def Con from 1.45805e-005 to 1.45805e-005
Heightened Def Con from 1.47117e-005 to 1.47117e-005
Heightened Def Con from 1.58109e-005 to 1.58111e-005
Heightened Def Con from 1.58724e-005 to 1.58724e-005
Heightened Def Con from 1.62787e-005 to 1.62789e-005
Heightened Def Con from 1.63658e-005 to 1.63659e-005
Heightened Def Con from 1.63852e-005 to 1.63853e-005
Heightened Def Con from 1.64614e-005 to 1.64614e-005
Heightened Def Con from 1.65917e-005 to 1.65917e-005
Heightened Def Con from 1.68248e-005 to 1.68248e-005
Heightened Def Con from 2.09778e-005 to 2.09778e-005
Heightened Def Con from 2.10126e-005 to 2.10127e-005
Heightened Def Con from 2.10236e-005 to 2.10237e-005
Heightened Def Con from 2.22154e-005 to 2.22155e-005
Heightened Def Con from 2.23265e-005 to 2.23265e-005
Heightened Def Con from 2.28429e-005 to 2.2843e-005
Heightened Def Con from 2.28465e-005 to 2.28467e-005
Heightened Def Con from 2.28736e-005 to 2.28736e-005
Heightened Def Con from 2.33251e-005 to 2.33252e-005
Heightened Def Con from 2.66148e-005 to 2.66149e-005
Heightened Def Con from 2.66168e-005 to 2.66169e-005
Heightened Def Con from 2.66665e-005 to 2.66666e-005
Heightened Def Con from 2.67674e-005 to 2.67674e-005
Heightened Def Con from 2.68298e-005 to 2.68298e-005
Heightened Def Con from 2.78584e-005 to 2.78584e-005
Heightened Def Con from 2.78832e-005 to 2.78832e-005
Heightened Def Con from 2.78856e-005 to 2.78856e-005
Heightened Def Con from 3.0123e-005 to 3.0123e-005
Heightened Def Con from 3.03577e-005 to 3.03578e-005
Heightened Def Con from 3.03749e-005 to 3.03749e-005
Heightened Def Con from 3.04363e-005 to 3.04363e-005
Heightened Def Con from 3.05206e-005 to 3.05206e-005
Heightened Def Con from 3.05413e-005 to 3.05414e-005
Heightened Def Con from 3.08393e-005 to 3.08393e-005
Heightened Def Con from 3.09688e-005 to 3.09689e-005
Heightened Def Con from 3.10002e-005 to 3.10003e-005
Heightened Def Con from 3.11168e-005 to 3.11168e-005
Heightened Def Con from 3.11504e-005 to 3.11504e-005
Heightened Def Con from 3.13445e-005 to 3.13446e-005
Heightened Def Con from 3.13999e-005 to 3.14e-005
Heightened Def Con from 3.1599e-005 to 3.1599e-005
Heightened Def Con from 3.1871e-005 to 3.1871e-005
Heightened Def Con from 3.21051e-005 to 3.21051e-005
Heightened Def Con from 3.21289e-005 to 3.213e-005
Heightened Def Con from 3.22311e-005 to 3.22312e-005
Heightened Def Con from 3.23666e-005 to 3.23666e-005
Heightened Def Con from 3.24073e-005 to 3.24073e-005
Heightened Def Con from 3.26846e-005 to 3.26846e-005
Heightened Def Con from 3.2685e-005 to 3.26852e-005
Heightened Def Con from 3.2691e-005 to 3.26911e-005
Heightened Def Con from 3.27194e-005 to 3.27194e-005
Heightened Def Con from 3.2857e-005 to 3.2857e-005
Heightened Def Con from 3.40389e-005 to 3.40391e-005
Heightened Def Con from 3.40862e-005 to 3.40862e-005
Heightened Def Con from 3.41199e-005 to 3.41199e-005
Heightened Def Con from 3.41249e-005 to 3.4125e-005
Heightened Def Con from 3.41291e-005 to 3.41291e-005
Heightened Def Con from 3.41691e-005 to 3.41693e-005
Heightened Def Con from 3.43035e-005 to 3.43038e-005
Heightened Def Con from 3.43634e-005 to 3.43634e-005
Heightened Def Con from 3.43803e-005 to 3.43804e-005
Heightened Def Con from 3.43948e-005 to 3.43949e-005
Heightened Def Con from 3.45195e-005 to 3.45195e-005
Heightened Def Con from 3.55025e-005 to 3.55035e-005
Heightened Def Con from 3.55174e-005 to 3.55174e-005
Heightened Def Con from 3.55662e-005 to 3.55662e-005
Heightened Def Con from 3.57096e-005 to 3.57098e-005
Heightened Def Con from 3.58056e-005 to 3.58056e-005
Heightened Def Con from 3.58115e-005 to 3.58116e-005
Heightened Def Con from 3.5922e-005 to 3.5922e-005
Heightened Def Con from 3.59353e-005 to 3.59353e-005
Heightened Def Con from 3.61107e-005 to 3.61109e-005
Heightened Def Con from 3.61771e-005 to 3.61771e-005
Heightened Def Con from 3.61945e-005 to 3.61946e-005
Heightened Def Con from 3.62788e-005 to 3.62789e-005
Heightened Def Con from 3.64202e-005 to 3.64202e-005
Heightened Def Con from 3.66759e-005 to 3.66759e-005
Heightened Def Con from 3.69176e-005 to 3.69179e-005
Heightened Def Con from 3.69205e-005 to 3.69215e-005
Heightened Def Con from 3.69355e-005 to 3.69355e-005
Heightened Def Con from 3.71403e-005 to 3.71404e-005
Heightened Def Con from 3.73452e-005 to 3.73452e-005
Heightened Def Con from 3.74948e-005 to 3.74949e-005
Heightened Def Con from 3.76538e-005 to 3.76539e-005
Heightened Def Con from 3.77539e-005 to 3.77539e-005
Heightened Def Con from 3.7814e-005 to 3.7814e-005
Heightened Def Con from 3.78727e-005 to 3.78728e-005
Heightened Def Con from 3.79581e-005 to 3.79581e-005
Heightened Def Con from 3.83316e-005 to 3.83316e-005
Heightened Def Con from 3.84146e-005 to 3.84156e-005
Heightened Def Con from 3.88927e-005 to 3.88929e-005
Heightened Def Con from 3.89283e-005 to 3.89284e-005
Heightened Def Con from 3.89947e-005 to 3.89947e-005
Heightened Def Con from 3.97049e-005 to 3.97049e-005
Heightened Def Con from 3.99421e-005 to 3.99423e-005
Heightened Def Con from 4.02156e-005 to 4.02156e-005
Heightened Def Con from 4.02313e-005 to 4.02313e-005
Heightened Def Con from 4.02388e-005 to 4.02388e-005
Heightened Def Con from 4.11128e-005 to 4.11128e-005
Heightened Def Con from 4.11356e-005 to 4.11357e-005
Heightened Def Con from 4.1249e-005 to 4.12491e-005
Heightened Def Con from 4.13299e-005 to 4.13299e-005
Heightened Def Con from 4.15059e-005 to 4.15059e-005
Heightened Def Con from 4.15865e-005 to 4.15865e-005
Heightened Def Con from 4.16196e-005 to 4.16196e-005
Heightened Def Con from 4.16545e-005 to 4.16547e-005
Heightened Def Con from 4.16866e-005 to 4.16866e-005
Heightened Def Con from 4.19949e-005 to 4.19959e-005
Heightened Def Con from 4.20242e-005 to 4.20242e-005
Heightened Def Con from 4.21057e-005 to 4.21057e-005
Heightened Def Con from 4.21396e-005 to 4.21396e-005
Heightened Def Con from 4.21405e-005 to 4.21405e-005
Heightened Def Con from 4.22348e-005 to 4.22348e-005
Heightened Def Con from 4.25607e-005 to 4.25607e-005
Heightened Def Con from 4.25773e-005 to 4.25773e-005
Heightened Def Con from 4.2616e-005 to 4.26161e-005
Heightened Def Con from 4.26336e-005 to 4.26337e-005
Heightened Def Con from 4.26477e-005 to 4.26477e-005
Heightened Def Con from 4.28225e-005 to 4.28225e-005
Heightened Def Con from 4.29152e-005 to 4.29153e-005
Heightened Def Con from 4.29332e-005 to 4.29332e-005
Heightened Def Con from 4.30256e-005 to 4.30256e-005
Heightened Def Con from 4.30862e-005 to 4.30862e-005
Heightened Def Con from 4.30873e-005 to 4.30873e-005
Heightened Def Con from 4.30887e-005 to 4.30887e-005
Heightened Def Con from 4.31201e-005 to 4.31201e-005
Heightened Def Con from 4.3167e-005 to 4.3168e-005
Heightened Def Con from 4.31751e-005 to 4.31751e-005
Heightened Def Con from 4.32292e-005 to 4.32292e-005
Heightened Def Con from 4.33026e-005 to 4.33026e-005
Heightened Def Con from 4.33822e-005 to 4.33823e-005
Heightened Def Con from 4.34166e-005 to 4.34166e-005
Heightened Def Con from 4.34744e-005 to 4.34744e-005
Heightened Def Con from 4.37857e-005 to 4.37857e-005
Heightened Def Con from 4.3906e-005 to 4.3907e-005
Heightened Def Con from 4.42615e-005 to 4.42615e-005
Heightened Def Con from 4.43305e-005 to 4.43305e-005
Heightened Def Con from 4.43329e-005 to 4.43329e-005
Heightened Def Con from 4.43733e-005 to 4.43734e-005
Heightened Def Con from 4.43862e-005 to 4.43873e-005
Heightened Def Con from 4.44241e-005 to 4.44241e-005
Heightened Def Con from 4.44446e-005 to 4.44447e-005
Heightened Def Con from 4.45291e-005 to 4.45302e-005
Heightened Def Con from 4.45641e-005 to 4.45641e-005
Heightened Def Con from 4.47676e-005 to 4.47677e-005
Heightened Def Con from 4.4771e-005 to 4.4771e-005
Heightened Def Con from 4.4789e-005 to 4.4789e-005
Heightened Def Con from 4.48211e-005 to 4.48213e-005
Heightened Def Con from 4.48554e-005 to 4.48555e-005
Heightened Def Con from 4.49236e-005 to 4.49238e-005
Heightened Def Con from 4.49434e-005 to 4.49434e-005
Heightened Def Con from 4.495e-005 to 4.49502e-005
Heightened Def Con from 4.49554e-005 to 4.49556e-005
Heightened Def Con from 4.51918e-005 to 4.51918e-005
Heightened Def Con from 4.53114e-005 to 4.53114e-005
Heightened Def Con from 4.5348e-005 to 4.5348e-005
Heightened Def Con from 4.53991e-005 to 4.53992e-005
Heightened Def Con from 4.54112e-005 to 4.54112e-005
Heightened Def Con from 4.54128e-005 to 4.54129e-005
Heightened Def Con from 4.54165e-005 to 4.54167e-005
Heightened Def Con from 4.54495e-005 to 4.54498e-005
Heightened Def Con from 4.55887e-005 to 4.55888e-005
Heightened Def Con from 4.5766e-005 to 4.5766e-005
Heightened Def Con from 4.58035e-005 to 4.58038e-005
Heightened Def Con from 4.59892e-005 to 4.59893e-005
Heightened Def Con from 4.61182e-005 to 4.61183e-005
Heightened Def Con from 4.62324e-005 to 4.62324e-005
Heightened Def Con from 4.63029e-005 to 4.6303e-005
Heightened Def Con from 4.63259e-005 to 4.63259e-005
Heightened Def Con from 5.09775e-005 to 5.09775e-005
Heightened Def Con from 5.10902e-005 to 5.10902e-005
Heightened Def Con from 5.11869e-005 to 5.11869e-005
Heightened Def Con from 5.12335e-005 to 5.12335e-005
Heightened Def Con from 5.12343e-005 to 5.12343e-005
Heightened Def Con from 5.1293e-005 to 5.12931e-005
Heightened Def Con from 5.1396e-005 to 5.13961e-005

Date: Thu Aug 25 11:08:57 2022
Total elapsed time: 1064.714 seconds.

tnom = 27
temp = 27
method = modified trap
totiter = 13337993
traniter = 13335119
tranpoints = 2227139
accept = 1668480
rejected = 558909
matrix size = 213
fillins = 526
solver = Normal
Thread vector: 108.0/26.1[8] 21.1/10.4[8] 29.1/8.9[8] 1.5/4.7[1]  2592/500
Matrix Compiler1: 47.99 KB object code size  22.4/14.2/[5.0]
Matrix Compiler2: 26.68 KB object code size  13.1/16.0/[3.1]

