Circuit: * D:\Engineering\2022\Semester 2\E Design 344\Project\Assignment 1\A1_LTSpiceTemplate\Draft1.asc

Direct Newton iteration for .op point succeeded.

Date: Mon Jul 25 07:05:31 2022
Total elapsed time: 0.368 seconds.

tnom = 27
temp = 27
method = modified trap
totiter = 37776
traniter = 37731
tranpoints = 15762
accept = 10481
rejected = 5281
matrix size = 17
fillins = 12
solver = Normal
Matrix Compiler1: 1.68 KB object code size  0.5/0.3/[0.1]
Matrix Compiler2: off  [0.2]/0.5/0.3

