Circuit: * D:\Engineering\2022\Semester 2\E Design 344\Project\Assignment 1\A1_LTSpiceTemplate\Draft1.asc

Direct Newton iteration for .op point succeeded.

Date: Fri Jul 22 16:11:25 2022
Total elapsed time: 3.661 seconds.

tnom = 27
temp = 27
method = modified trap
totiter = 78068
traniter = 78036
tranpoints = 33474
accept = 23022
rejected = 10452
matrix size = 17
fillins = 12
solver = Normal
Matrix Compiler1: 1.68 KB object code size  0.6/0.5/[0.2]
Matrix Compiler2: 1.50 KB object code size  0.3/0.5/[0.2]

