Circuit: * D:\Engineering\2022\Semester 2\E Design 344\Project\Assignment 1\A1_LTSpiceTemplate\E344_Ass1_CurrSense.asc

Direct Newton iteration for .op point succeeded.

Date: Mon Jul 25 07:48:52 2022
Total elapsed time: 0.433 seconds.

tnom = 27
temp = 27
method = modified trap
totiter = 82787
traniter = 82742
tranpoints = 33735
accept = 23026
rejected = 10709
matrix size = 17
fillins = 12
solver = Normal
Matrix Compiler1: 1.68 KB object code size  0.3/0.2/[0.1]
Matrix Compiler2: off  [0.1]/0.3/0.2

