Circuit: * D:\Engineering\2022\Semester 2\E Design 344\Project\Assignment 1\A1_LTSpiceTemplate\E344_23575786_A1.asc

Direct Newton iteration for .op point succeeded.

Date: Sun Jul 31 15:15:48 2022
Total elapsed time: 0.442 seconds.

tnom = 27
temp = 27
method = modified trap
totiter = 33719
traniter = 33689
tranpoints = 14201
accept = 9616
rejected = 4585
matrix size = 18
fillins = 11
solver = Normal
Matrix Compiler1: 1.67 KB object code size  0.5/0.3/[0.2]
Matrix Compiler2: off  [0.2]/0.3/0.3

