Circuit: * D:\Engineering\2022\Semester 2\E Design 344\Project\Assignment 5\LTSpice - Template\Draft1.asc

Direct Newton iteration for .op point succeeded.

Date: Tue Sep 06 11:02:13 2022
Total elapsed time: 0.060 seconds.

tnom = 27
temp = 27
method = modified trap
totiter = 3472
traniter = 3456
tranpoints = 1463
accept = 1367
rejected = 96
matrix size = 9
fillins = 0
solver = Normal
Matrix Compiler1: 456 bytes object code size  0.1/0.1/[0.1]
Matrix Compiler2: off  [0.1]/0.1/0.1

