Circuit: * D:\Engineering\2022\Semester 2\E Design 344\Project\Assignment 5\LTSpice - Template\E344_23575786_A5.asc

Limiting rise time of source v3 to 0.006
Limiting fall time of source v3 to 0.006
Direct Newton iteration for .op point succeeded.

Date: Sun Sep 18 20:47:39 2022
Total elapsed time: 24.048 seconds.

tnom = 27
temp = 27
method = modified trap
totiter = 1266007
traniter = 1265977
tranpoints = 487727
accept = 410304
rejected = 77423
matrix size = 34
fillins = 18
solver = Normal
Matrix Compiler1: 2.68 KB object code size  0.7/0.4/[0.2]
Matrix Compiler2: off  [0.3]/0.5/0.4

