Circuit: * D:\Engineering\2022\Semester 2\E Design 344\Project\Assignment 5\LTSpice - Template\E344_12345678_A5.asc

Limiting rise time of source v3 to 0.006
Limiting fall time of source v3 to 0.006
Direct Newton iteration failed to find .op point.  (Use ".option noopiter" to skip.)
Starting Gmin stepping
Gmin = 10
Gmin = 1.07374
Gmin = 0.115292
Gmin = 0.0123794
Gmin = 0.00132923
Gmin = 0.000142725
Gmin = 1.5325e-005
Gmin = 1.6455e-006
Gmin = 1.76685e-007
Gmin = 1.89714e-008
Gmin = 2.03704e-009
Gmin = 2.18725e-010
Gmin = 2.34854e-011
Gmin = 2.52173e-012
Gmin = 2.70769e-013
Gmin = 0
Gmin stepping succeeded in finding the operating point.


Date: Tue Sep 06 14:22:03 2022
Total elapsed time: 17.142 seconds.

tnom = 27
temp = 27
method = modified trap
totiter = 1329443
traniter = 1328989
tranpoints = 499555
accept = 417243
rejected = 82312
matrix size = 39
fillins = 26
solver = Normal
Matrix Compiler1: 3.59 KB object code size  0.5/0.3/[0.2]
Matrix Compiler2: 3.35 KB object code size  0.3/0.5/[0.2]

