Circuit: * D:\Engineering\2022\Semester 2\E Design 344\Project\Assignment 6\Ass6bLTspiceTemplate\E344_23575786_A6b.asc

Direct Newton iteration failed to find .op point.  (Use ".option noopiter" to skip.)
Starting Gmin stepping
Gmin = 10
Gmin = 1.07374
Gmin = 0.115292
Gmin = 0.0123794
Gmin = 0.00132923
Gmin = 0.000142725
Gmin = 1.5325e-005
Gmin = 1.6455e-006
Gmin = 1.76685e-007
vernier = 0.5
Gmin = 5.02003e-008
vernier = 0.666667
vernier = 0.888888
Gmin = 8.92124e-009
vernier = 1
Gmin = 1.00195e-009
Gmin = 1.07583e-010
Gmin = 1.15517e-011
Gmin = 1.24035e-012
Gmin = 1.33182e-013
Gmin = 0
Gmin stepping succeeded in finding the operating point.


Date: Sun Sep 25 20:54:52 2022
Total elapsed time: 0.796 seconds.

tnom = 27
temp = 27
method = modified trap
totiter = 6194
traniter = 5557
tranpoints = 2454
accept = 2342
rejected = 112
matrix size = 56
fillins = 50
solver = Normal
Matrix Compiler1: 7.77 KB object code size  2.4/1.7/[0.8]
Matrix Compiler2: 5.69 KB object code size  1.0/1.2/[0.5]

