Circuit: * D:\Engineering\2022\Semester 2\E Design 344\Project\Assignment 6\Ass6bLTspiceTemplate\SchmittTrigger.asc

Direct Newton iteration failed to find .op point.  (Use ".option noopiter" to skip.)
Starting Gmin stepping
Gmin = 10
Gmin = 1.07374
Gmin = 0.115292
Gmin = 0.0123794
Gmin = 0.00132923
Gmin = 0.000142725
Gmin = 1.5325e-005
Gmin = 1.6455e-006
vernier = 0.5
vernier = 0.25
Gmin = 7.02396e-007
vernier = 0.333333
vernier = 0.444444
Gmin = 3.11772e-007
vernier = 0.592592
Gmin = 8.92935e-008
vernier = 0.790123
vernier = 1
Gmin = 1.24011e-008
Gmin = 1.33156e-009
Gmin = 1.42975e-010
Gmin = 1.53518e-011
Gmin = 1.64839e-012
Gmin = 1.76994e-013
Gmin = 0
Gmin stepping succeeded in finding the operating point.


Date: Sun Sep 25 20:59:27 2022
Total elapsed time: 0.908 seconds.

tnom = 27
temp = 27
method = modified trap
totiter = 46782
traniter = 46007
tranpoints = 16851
accept = 11777
rejected = 5074
matrix size = 44
fillins = 39
solver = Normal
Thread vector: 14.2/10.1[2] 3.0/3.8[1] 3.0/2.7[2] 0.3/1.5[1]  2592/500
Matrix Compiler1: 3.84 KB object code size  1.2/0.6/[0.3]
Matrix Compiler2: 4.38 KB object code size  0.7/1.1/[0.5]

